This namelist contains various input parameters for HYDRO runs

&RUN
nstepmax=10
tend=500.0
noutput=200
/

&MESH
nx=4096
ny=4096
dx=0.08
boundary_left=1
boundary_right=1
boundary_down=1
boundary_up=1
/

&HYDRO
courant_factor=0.8
niter_riemann=10
/
