This namelist contains various input parameters for HYDRO runs

&RUN
nstepmax=10
tend=200.0
noutput=50
/

&MESH
nx=1024
ny=1024
dx=0.02
boundary_left=1
boundary_right=1
boundary_down=1
boundary_up=1
/

&HYDRO
courant_factor=0.4
niter_riemann=10
/
